 ****** HSPICE -- B-2008.09 32-BIT (Aug 26 2008) winnt ******                   
  Copyright (C) 2008 Synopsys, Inc. All Rights Reserved.                        
  Unpublished-rights reserved under US copyright laws.
  This program is protected by law and is subject to the 
  terms and conditions of the license agreement from Synopsys.
  Use of this program is your acceptance to be bound by the 
  license agreement. HSPICE is the trademark of Synopsys, Inc.
  Input File: c:\users\timer\documents\github\hspice\op\035\subvthop_twostage\my
 Init: read install configuration file: C:\synopsys\Hspice_B-2008.09\meta.cfg
 Init: hspice initialization file: C:\synopsys\Hspice_B-2008.09\hspice.ini




 .option post acout=0 accurate=1 dcon=1 converge=1 gmindc=1.0000e-12 captab=1
 *.option dccap=1 accurate=1 post

 ***param***
 .param
 +comon		= 2
 +bias			= 2.7
 +bias2		= 0.45
 +supplyp	= 3.3
 +supplyn	= 0
 +diff			= 0
 ***netlist***
 ***1st stage***
 mb	b	b0	vdd	vdd	pch	w = 31u  l = 1u	  m = 2
 m1	1	vinn	b		b		pch	w = 10u l = 0.4u m = 1
 m2	2	vinp	b		b		pch	w = 10u l = 0.4u m = 1
 m3	1	b1		vss	vss	nch	w = 2.8u l = 0.4u m = 2
 m4	2	b1		vss	vss	nch	w = 2.8u l = 0.4u m = 2

 **low f gain = 34.5db
 * for subthreshold diffpair. gain do little with id. it is more related to leff and vds of output mos(about output resistance)
 * gds is proportional to 1/leff & vds
 *kappa ~= 0.7

 ***2nd stage***
 *m3	von	1		vdd	vdd	pch	w = 18u    l = 1u   m = 1
 *m4	vop	2		vdd	vdd	pch w = 3.88u 	 l = 0.4u m = 1
 *m7	von	von	vss	vss	nch	w = 3.8u   l = 1u   m = 1
 *m8	vop	von	vss	vss	nch	w = 1.1u   l = 0.4u m = 1

 ***compensation***
 *
 *c1	z1		von 400f
 *rz1	z1		1   350k
 *c2	2			vop 300f


 ***source***
 vd		vdd 	gnd dc supplyp
 vs		vss 	gnd dc supplyn
 vb 		b0		gnd dc bias
 vb1		b1		gnd dc bias2


 ***input***
 vinp vinp gnd dc = 'comon+diff' *ac = 1
 vinn vinn gnd dc = 'comon-diff' ac = 1






 ***test
 *mt	vdt	vgt	vss	vss	nch	w = 2.7u   l = 0.5u m = 1
 mt	vdt	vgt	vdd	vdd	pch w = 9.7u l = 0.5u m = 1

 vtd	vdt	gnd dc = '1-499.7048m'
 vtg	vgt	gnd dc = '1-397.6836m'

 ***






 .op

 ***sweep***
 .dc diff -0.5 0.5 0.01
 ***probe&measuring***
 .ac dec 1000 10 1g
 *.tf v(1) vinp
 *.pz v(vop) vinp
 .probe dc i(m1) i(m2)	i(mt)
 .probe ac cap(von)
 +gain1st=par('vdb(2, 1)-vdb(vinp,vinn)')	par('i(m1)-i(m2)')	phase1st=par('vp(2,1)')
 *+gainall=par('vdb(vop)-vdb(vinp,vinn)')		phaseall=par('vp(vop)')
 .meas ac gain max (par('vdb(vop)-vdb(vinp,vinn)'))
 *.meas ac zerodb when par('vdb(vop)-vdb(vinp,vinn)') = 1
 *.meas ac phaseatdb	find par('vp(vop)') when par('vdb(vop)-vdb(vinp,vinn)') = 1

 .noise v(1) vinn 10
 .end


 **warning**  the accurate option increases  the cpu time but the results
                are more accurate.
 ***accurate option sets default value of the options: 
 lvltim= 4         dvdt= 3       relvar= 200.00m absvar= 200.00m
     ft= 200.00m relmos=  10.00m
 (used for FFT control ) fft_accurate= 1
 

 **warning**  attempt to reference undefined node     0:von             
  in the definition of cap(von,0)
   branch - output ignored

 **warning**  attempt to reference undefined node     0:vop             
  in the definition of vdb(vop,0)
   branch - output ignored

 
      
  *** initial damped pseudo transient completed. ***
  *** final try started ***
1****** HSPICE -- B-2008.09 32-BIT (Aug 26 2008) winnt ******                   
 ******  
 ***myop_2stage

  ******  operating point information tnom=  25.000 temp=  25.000 *****
 ***** operating point status is all       simulation time is     0.     
    node    =voltage      node    =voltage      node    =voltage

 +0:1       =   1.4088  0:2       =   1.4088  0:b       =   2.5990 
 +0:b0      =   2.7000  0:b1      = 450.0000m 0:vdd     =   3.3000 
 +0:vdt     = 500.2952m 0:vgt     = 602.3164m 0:vinn    =   2.0000 
 +0:vinp    =   2.0000  0:vss     =   0.     


 maximum nodal capacitance=   3.710E-13         on node     0:vdd             

    nodal  capacitance table 

    node    =    cap      node    =    cap      node    =    cap

 +0:1       =  19.1432f 0:2       =  19.1432f 0:b       = 172.0118f
 +0:b0      =  72.8322f 0:b1      =   9.5721f 0:vdd     = 370.9905f
 +0:vdt     =   9.1699f 0:vgt     =  17.0389f 0:vinn    =   6.8678f
 +0:vinp    =   6.8678f 0:vss     =  49.8879f

 

 ****  voltage sources

 subckt                                                                    
 element  0:vd       0:vs       0:vb       0:vb1      0:vinp     0:vinn    
  volts      3.3000     0.         2.7000   450.0000m    2.0000     2.0000 
  current   -1.2923m  407.1762n    0.         0.         0.         0.     
  power      4.2647m    0.         0.         0.         0.         0.     

 subckt                        
 element  0:vtd      0:vtg     
  volts    500.2952m  602.3164m
  current    1.2919m    0.     
  power   -646.3468u    0.     

     total voltage source power dissipation=    3.6184m       watts




 **** mosfets


 subckt                                                                    
 element  0:mb       0:m1       0:m2       0:m3       0:m4       0:mt      
 model    0:pch.11   0:pch.3    0:pch.3    0:nch.3    0:nch.3    0:pch.3   
 region       Cutoff     Cutoff     Cutoff     Cutoff     Cutoff   Saturati
  id      -407.1734n -203.5857n -203.5857n  203.5820n  203.5820n   -1.2919m
  ibs      8.001e-20  4.037e-20  4.037e-20 -3.548e-19 -3.548e-19  222.9822a
  ibd        5.6318f    1.7124f    1.7124f -523.6882f -523.6882f    6.3990p
  vgs     -600.0000m -598.9656m -598.9656m  450.0000m  450.0000m   -2.6977 
  vds     -701.0344m   -1.1901    -1.1901     1.4088     1.4088    -2.7997 
  vbs        0.         0.         0.         0.         0.         0.     
  vth     -749.2833m -698.8763m -698.8763m  560.2701m  560.2701m -690.9087m
  vdsat    -52.6065m  -50.1305m  -50.1305m   44.1677m   44.1677m   -1.6224 
  vod      149.2833m   99.9107m   99.9107m -110.2701m -110.2701m   -2.0068 
  beta       3.6743m    1.2728m    1.2728m    3.0229m    3.0229m  735.0772u
  gam eff  391.6940m  462.5849m  462.5849m  545.6203m  545.6203m  432.3028m
  gm         8.9382u    4.6835u    4.6835u    5.3025u    5.3025u  924.0572u
  gds       82.8126n  134.7764n  134.7764n   76.4075n   76.4075n   69.4653u
  gmb        2.0483u    1.0470u    1.0470u    1.4892u    1.4892u  212.9463u
  cdtot     80.6051f   12.0032f   12.0032f    7.1399f    7.1399f    9.1699f
  cgtot     72.8322f    6.8678f    6.8678f    4.7860f    4.7860f   17.0389f
  cstot    102.5259f   17.0945f   17.0945f    8.8773f    8.8773f   31.9539f
  cbtot    210.5060f   28.6089f   28.6089f   16.0666f   16.0666f   26.0048f
  cgs       11.3643f    1.8391f    1.8391f    1.1842f    1.1842f   14.2707f
  cgd       11.3643f    1.8391f    1.8391f    1.1842f    1.1842f    1.7842f



1****** HSPICE -- B-2008.09 32-BIT (Aug 26 2008) winnt ******                   
 ******  
 ***myop_2stage

  ******  noise analysis tnom=  25.000 temp=  25.000 *****

     frequency =  10.0000       hz




 **** mosfet squared noise voltages (sq v/hz)




 element     0:mb
       rd  4.592e-21    
       rs   73.8820a    
       id    0.         
       rx    6.3917x    
       fn    4.4106n    
    total    4.4106n    




 element     0:m1
       rd  1.197e-20    
       rs   18.2071a    
       id    0.         
       rx    2.4225x    
       fn    3.0292n    
    total    3.0292n    




 element     0:m2
       rd  9.165e-21    
       rs   16.8335a    
       id    0.         
       rx    2.3126x    
       fn    2.7607n    
    total    2.7607n    




 element     0:m3
       rd  5.181e-20    
       rs  306.8383a    
       id    0.         
       rx    8.8140x    
       fn   33.3561n    
    total   33.3561n    




 element     0:m4
       rd  7.285e-21    
       rs   65.7135a    
       id    0.         
       rx    4.0789x    
       fn    7.1436n    
    total    7.1436n    




 element     0:mt
       rd    0.         
       rs    0.         
       id    0.         
       rx    0.         
       fn    0.         
    total    0.         




 **** total output noise voltage         =  50.7001n       sq v/hz
                                         = 225.1669u       v/rt hz
      transfer function value:
        v(1)/vinn                        =  11.3456       
      equivalent input noise at vinn                          
                                         =  19.8461u       /rt hz



 **** the results of the sqrt of integral (v**2 / freq)
      from fstart upto   10.0000       hz. using more freq points
      results in more accurate total noise values.

 **** total output noise voltage   =    0.            volts
 **** total equivalent input noise =    0.           



1****** HSPICE -- B-2008.09 32-BIT (Aug 26 2008) winnt ******                   
 ******  
 ***myop_2stage

  ******  noise analysis tnom=  25.000 temp=  25.000 *****

     frequency =  10.2329       hz




 **** mosfet squared noise voltages (sq v/hz)




 element     0:mb
       rd  4.592e-21    
       rs   73.8820a    
       id    0.         
       rx    6.3917x    
       fn    4.3102n    
    total    4.3102n    




 element     0:m1
       rd  1.197e-20    
       rs   18.2071a    
       id    0.         
       rx    2.4225x    
       fn    2.9602n    
    total    2.9602n    




 element     0:m2
       rd  9.165e-21    
       rs   16.8335a    
       id    0.         
       rx    2.3126x    
       fn    2.6978n    
    total    2.6978n    




 element     0:m3
       rd  5.181e-20    
       rs  306.8383a    
       id    0.         
       rx    8.8140x    
       fn   32.7096n    
    total   32.7096n    




 element     0:m4
       rd  7.285e-21    
       rs   65.7135a    
       id    0.         
       rx    4.0789x    
       fn    7.0052n    
    total    7.0052n    




 element     0:mt
       rd    0.         
       rs    0.         
       id    0.         
       rx    0.         
       fn    0.         
    total    0.         




 **** total output noise voltage         =  49.6830n       sq v/hz
                                         = 222.8968u       v/rt hz
      transfer function value:
        v(1)/vinn                        =  11.3456       
      equivalent input noise at vinn                          
                                         =  19.6460u       /rt hz



 **** the results of the sqrt of integral (v**2 / freq)
      from fstart upto   10.2329       hz. using more freq points
      results in more accurate total noise values.

 **** total output noise voltage   =  108.1215u       volts
 **** total equivalent input noise =    9.5298u      



1****** HSPICE -- B-2008.09 32-BIT (Aug 26 2008) winnt ******                   
 ******  
 ***myop_2stage

  ******  noise analysis tnom=  25.000 temp=  25.000 *****

     frequency =  10.4713       hz




 **** mosfet squared noise voltages (sq v/hz)




 element     0:mb
       rd  4.592e-21    
       rs   73.8820a    
       id    0.         
       rx    6.3917x    
       fn    4.2121n    
    total    4.2121n    




 element     0:m1
       rd  1.197e-20    
       rs   18.2071a    
       id    0.         
       rx    2.4225x    
       fn    2.8928n    
    total    2.8928n    




 element     0:m2
       rd  9.165e-21    
       rs   16.8335a    
       id    0.         
       rx    2.3126x    
       fn    2.6364n    
    total    2.6364n    




 element     0:m3
       rd  5.181e-20    
       rs  306.8383a    
       id    0.         
       rx    8.8140x    
       fn   32.0756n    
    total   32.0756n    




 element     0:m4
       rd  7.285e-21    
       rs   65.7135a    
       id    0.         
       rx    4.0789x    
       fn    6.8694n    
    total    6.8694n    




 element     0:mt
       rd    0.         
       rs    0.         
       id    0.         
       rx    0.         
       fn    0.         
    total    0.         




 **** total output noise voltage         =  48.6863n       sq v/hz
                                         = 220.6498u       v/rt hz
      transfer function value:
        v(1)/vinn                        =  11.3456       
      equivalent input noise at vinn                          
                                         =  19.4480u       /rt hz



 **** the results of the sqrt of integral (v**2 / freq)
      from fstart upto   10.4713       hz. using more freq points
      results in more accurate total noise values.

 **** total output noise voltage   =  153.0126u       volts
 **** total equivalent input noise =   13.4865u      



1****** HSPICE -- B-2008.09 32-BIT (Aug 26 2008) winnt ******                   
 ******  
 ***myop_2stage

  ******  noise analysis tnom=  25.000 temp=  25.000 *****

     frequency =  10.7152       hz




 **** mosfet squared noise voltages (sq v/hz)




 element     0:mb
       rd  4.592e-21    
       rs   73.8820a    
       id    0.         
       rx    6.3917x    
       fn    4.1162n    
    total    4.1162n    




 element     0:m1
       rd  1.197e-20    
       rs   18.2071a    
       id    0.         
       rx    2.4225x    
       fn    2.8270n    
    total    2.8270n    




 element     0:m2
       rd  9.165e-21    
       rs   16.8335a    
       id    0.         
       rx    2.3126x    
       fn    2.5764n    
    total    2.5764n    




 element     0:m3
       rd  5.181e-20    
       rs  306.8383a    
       id    0.         
       rx    8.8140x    
       fn   31.4539n    
    total   31.4539n    




 element     0:m4
       rd  7.285e-21    
       rs   65.7135a    
       id    0.         
       rx    4.0789x    
       fn    6.7363n    
    total    6.7363n    




 element     0:mt
       rd    0.         
       rs    0.         
       id    0.         
       rx    0.         
       fn    0.         
    total    0.         




 **** total output noise voltage         =  47.7098n       sq v/hz
                                         = 218.4257u       v/rt hz
      transfer function value:
        v(1)/vinn                        =  11.3456       
      equivalent input noise at vinn                          
                                         =  19.2519u       /rt hz



 **** the results of the sqrt of integral (v**2 / freq)
      from fstart upto   10.7152       hz. using more freq points
      results in more accurate total noise values.

 **** total output noise voltage   =  187.5310u       volts
 **** total equivalent input noise =   16.5289u      



1****** HSPICE -- B-2008.09 32-BIT (Aug 26 2008) winnt ******                   
 ******  
 ***myop_2stage

  ******  noise analysis tnom=  25.000 temp=  25.000 *****

     frequency =  10.9648       hz




 **** mosfet squared noise voltages (sq v/hz)




 element     0:mb
       rd  4.592e-21    
       rs   73.8820a    
       id    0.         
       rx    6.3917x    
       fn    4.0225n    
    total    4.0225n    




 element     0:m1
       rd  1.197e-20    
       rs   18.2071a    
       id    0.         
       rx    2.4225x    
       fn    2.7626n    
    total    2.7626n    




 element     0:m2
       rd  9.165e-21    
       rs   16.8335a    
       id    0.         
       rx    2.3126x    
       fn    2.5177n    
    total    2.5177n    




 element     0:m3
       rd  5.181e-20    
       rs  306.8383a    
       id    0.         
       rx    8.8140x    
       fn   30.8443n    
    total   30.8443n    




 element     0:m4
       rd  7.285e-21    
       rs   65.7135a    
       id    0.         
       rx    4.0789x    
       fn    6.6057n    
    total    6.6057n    




 element     0:mt
       rd    0.         
       rs    0.         
       id    0.         
       rx    0.         
       fn    0.         
    total    0.         




 **** total output noise voltage         =  46.7529n       sq v/hz
                                         = 216.2242u       v/rt hz
      transfer function value:
        v(1)/vinn                        =  11.3456       
      equivalent input noise at vinn                          
                                         =  19.0579u       /rt hz



 **** the results of the sqrt of integral (v**2 / freq)
      from fstart upto   10.9648       hz. using more freq points
      results in more accurate total noise values.

 **** total output noise voltage   =  216.6920u       volts
 **** total equivalent input noise =   19.0991u      



1****** HSPICE -- B-2008.09 32-BIT (Aug 26 2008) winnt ******                   
 ******  
 ***myop_2stage

  ******  noise analysis tnom=  25.000 temp=  25.000 *****

     frequency =  11.2202       hz




 **** mosfet squared noise voltages (sq v/hz)




 element     0:mb
       rd  4.592e-21    
       rs   73.8820a    
       id    0.         
       rx    6.3917x    
       fn    3.9310n    
    total    3.9310n    




 element     0:m1
       rd  1.197e-20    
       rs   18.2071a    
       id    0.         
       rx    2.4225x    
       fn    2.6997n    
    total    2.6997n    




 element     0:m2
       rd  9.165e-21    
       rs   16.8335a    
       id    0.         
       rx    2.3126x    
       fn    2.4604n    
    total    2.4604n    




 element     0:m3
       rd  5.181e-20    
       rs  306.8383a    
       id    0.         
       rx    8.8140x    
       fn   30.2465n    
    total   30.2465n    




 element     0:m4
       rd  7.285e-21    
       rs   65.7135a    
       id    0.         
       rx    4.0789x    
       fn    6.4777n    
    total    6.4777n    




 element     0:mt
       rd    0.         
       rs    0.         
       id    0.         
       rx    0.         
       fn    0.         
    total    0.         




 **** total output noise voltage         =  45.8153n       sq v/hz
                                         = 214.0451u       v/rt hz
      transfer function value:
        v(1)/vinn                        =  11.3456       
      equivalent input noise at vinn                          
                                         =  18.8658u       /rt hz



 **** the results of the sqrt of integral (v**2 / freq)
      from fstart upto   11.2202       hz. using more freq points
      results in more accurate total noise values.

 **** total output noise voltage   =  242.4369u       volts
 **** total equivalent input noise =   21.3683u      



1****** HSPICE -- B-2008.09 32-BIT (Aug 26 2008) winnt ******                   
 ******  
 ***myop_2stage

  ******  noise analysis tnom=  25.000 temp=  25.000 *****

     frequency =  11.4815       hz




 **** mosfet squared noise voltages (sq v/hz)




 element     0:mb
       rd  4.592e-21    
       rs   73.8820a    
       id    0.         
       rx    6.3917x    
       fn    3.8415n    
    total    3.8415n    




 element     0:m1
       rd  1.197e-20    
       rs   18.2071a    
       id    0.         
       rx    2.4225x    
       fn    2.6383n    
    total    2.6383n    




 element     0:m2
       rd  9.165e-21    
       rs   16.8335a    
       id    0.         
       rx    2.3126x    
       fn    2.4044n    
    total    2.4044n    




 element     0:m3
       rd  5.181e-20    
       rs  306.8383a    
       id    0.         
       rx    8.8140x    
       fn   29.6602n    
    total   29.6602n    




 element     0:m4
       rd  7.285e-21    
       rs   65.7135a    
       id    0.         
       rx    4.0789x    
       fn    6.3521n    
    total    6.3521n    




 element     0:mt
       rd    0.         
       rs    0.         
       id    0.         
       rx    0.         
       fn    0.         
    total    0.         




 **** total output noise voltage         =  44.8966n       sq v/hz
                                         = 211.8881u       v/rt hz
      transfer function value:
        v(1)/vinn                        =  11.3456       
      equivalent input noise at vinn                          
                                         =  18.6757u       /rt hz



 **** the results of the sqrt of integral (v**2 / freq)
      from fstart upto   11.4815       hz. using more freq points
      results in more accurate total noise values.

 **** total output noise voltage   =  265.7605u       volts
 **** total equivalent input noise =   23.4240u      



1****** HSPICE -- B-2008.09 32-BIT (Aug 26 2008) winnt ******                   
 ******  
 ***myop_2stage

  ******  noise analysis tnom=  25.000 temp=  25.000 *****

     frequency =  11.7490       hz




 **** mosfet squared noise voltages (sq v/hz)




 element     0:mb
       rd  4.592e-21    
       rs   73.8820a    
       id    0.         
       rx    6.3917x    
       fn    3.7540n    
    total    3.7540n    




 element     0:m1
       rd  1.197e-20    
       rs   18.2071a    
       id    0.         
       rx    2.4225x    
       fn    2.5782n    
    total    2.5782n    




 element     0:m2
       rd  9.165e-21    
       rs   16.8335a    
       id    0.         
       rx    2.3126x    
       fn    2.3497n    
    total    2.3497n    




 element     0:m3
       rd  5.181e-20    
       rs  306.8383a    
       id    0.         
       rx    8.8140x    
       fn   29.0854n    
    total   29.0854n    




 element     0:m4
       rd  7.285e-21    
       rs   65.7135a    
       id    0.         
       rx    4.0789x    
       fn    6.2290n    
    total    6.2290n    




 element     0:mt
       rd    0.         
       rs    0.         
       id    0.         
       rx    0.         
       fn    0.         
    total    0.         




 **** total output noise voltage         =  43.9964n       sq v/hz
                                         = 209.7531u       v/rt hz
      transfer function value:
        v(1)/vinn                        =  11.3456       
      equivalent input noise at vinn                          
                                         =  18.4876u       /rt hz



 **** the results of the sqrt of integral (v**2 / freq)
      from fstart upto   11.7490       hz. using more freq points
      results in more accurate total noise values.

 **** total output noise voltage   =  287.2534u       volts
 **** total equivalent input noise =   25.3184u      



1****** HSPICE -- B-2008.09 32-BIT (Aug 26 2008) winnt ******                   
 ******  
 ***myop_2stage

  ******  noise analysis tnom=  25.000 temp=  25.000 *****

     frequency =  12.0226       hz




 **** mosfet squared noise voltages (sq v/hz)




 element     0:mb
       rd  4.592e-21    
       rs   73.8820a    
       id    0.         
       rx    6.3917x    
       fn    3.6686n    
    total    3.6686n    




 element     0:m1
       rd  1.197e-20    
       rs   18.2071a    
       id    0.         
       rx    2.4225x    
       fn    2.5195n    
    total    2.5195n    




 element     0:m2
       rd  9.165e-21    
       rs   16.8335a    
       id    0.         
       rx    2.3126x    
       fn    2.2962n    
    total    2.2962n    




 element     0:m3
       rd  5.181e-20    
       rs  306.8383a    
       id    0.         
       rx    8.8140x    
       fn   28.5217n    
    total   28.5217n    




 element     0:m4
       rd  7.285e-21    
       rs   65.7135a    
       id    0.         
       rx    4.0789x    
       fn    6.1083n    
    total    6.1083n    




 element     0:mt
       rd    0.         
       rs    0.         
       id    0.         
       rx    0.         
       fn    0.         
    total    0.         




 **** total output noise voltage         =  43.1143n       sq v/hz
                                         = 207.6398u       v/rt hz
      transfer function value:
        v(1)/vinn                        =  11.3456       
      equivalent input noise at vinn                          
                                         =  18.3013u       /rt hz



 **** the results of the sqrt of integral (v**2 / freq)
      from fstart upto   12.0226       hz. using more freq points
      results in more accurate total noise values.

 **** total output noise voltage   =  307.3002u       volts
 **** total equivalent input noise =   27.0853u      



1****** HSPICE -- B-2008.09 32-BIT (Aug 26 2008) winnt ******                   
 ******  
 ***myop_2stage

  ******  noise analysis tnom=  25.000 temp=  25.000 *****

     frequency =  12.3027       hz




 **** mosfet squared noise voltages (sq v/hz)




 element     0:mb
       rd  4.592e-21    
       rs   73.8820a    
       id    0.         
       rx    6.3917x    
       fn    3.5851n    
    total    3.5851n    




 element     0:m1
       rd  1.197e-20    
       rs   18.2071a    
       id    0.         
       rx    2.4225x    
       fn    2.4622n    
    total    2.4622n    




 element     0:m2
       rd  9.165e-21    
       rs   16.8335a    
       id    0.         
       rx    2.3126x    
       fn    2.2439n    
    total    2.2439n    




 element     0:m3
       rd  5.181e-20    
       rs  306.8383a    
       id    0.         
       rx    8.8140x    
       fn   27.9689n    
    total   27.9689n    




 element     0:m4
       rd  7.285e-21    
       rs   65.7135a    
       id    0.         
       rx    4.0789x    
       fn    5.9899n    
    total    5.9899n    




 element     0:mt
       rd    0.         
       rs    0.         
       id    0.         
       rx    0.         
       fn    0.         
    total    0.         




 **** total output noise voltage         =  42.2500n       sq v/hz
                                         = 205.5480u       v/rt hz
      transfer function value:
        v(1)/vinn                        =  11.3456       
      equivalent input noise at vinn                          
                                         =  18.1169u       /rt hz



 **** the results of the sqrt of integral (v**2 / freq)
      from fstart upto   12.3027       hz. using more freq points
      results in more accurate total noise values.

 **** total output noise voltage   =  326.1677u       volts
 **** total equivalent input noise =   28.7483u      



1****** HSPICE -- B-2008.09 32-BIT (Aug 26 2008) winnt ******                   
 ******  
 ***myop_2stage

  ******  noise analysis tnom=  25.000 temp=  25.000 *****

     frequency =  12.5893       hz




 **** mosfet squared noise voltages (sq v/hz)




 element     0:mb
       rd  4.592e-21    
       rs   73.8820a    
       id    0.         
       rx    6.3917x    
       fn    3.5035n    
    total    3.5035n    




 element     0:m1
       rd  1.197e-20    
       rs   18.2071a    
       id    0.         
       rx    2.4225x    
       fn    2.4061n    
    total    2.4061n    




 element     0:m2
       rd  9.165e-21    
       rs   16.8335a    
       id    0.         
       rx    2.3126x    
       fn    2.1929n    
    total    2.1929n    




 element     0:m3
       rd  5.181e-20    
       rs  306.8383a    
       id    0.         
       rx    8.8140x    
       fn   27.4268n    
    total   27.4268n    




 element     0:m4
       rd  7.285e-21    
       rs   65.7135a    
       id    0.         
       rx    4.0789x    
       fn    5.8738n    
    total    5.8738n    




 element     0:mt
       rd    0.         
       rs    0.         
       id    0.         
       rx    0.         
       fn    0.         
    total    0.         




 **** total output noise voltage         =  41.4031n       sq v/hz
                                         = 203.4774u       v/rt hz
      transfer function value:
        v(1)/vinn                        =  11.3456       
      equivalent input noise at vinn                          
                                         =  17.9344u       /rt hz



 **** the results of the sqrt of integral (v**2 / freq)
      from fstart upto   12.5893       hz. using more freq points
      results in more accurate total noise values.

 **** total output noise voltage   =  344.0503u       volts
 **** total equivalent input noise =   30.3244u      



1****** HSPICE -- B-2008.09 32-BIT (Aug 26 2008) winnt ******                   
 ******  
 ***myop_2stage

  ******  noise analysis tnom=  25.000 temp=  25.000 *****

     frequency =  12.8825       hz




 **** mosfet squared noise voltages (sq v/hz)




 element     0:mb
       rd  4.592e-21    
       rs   73.8820a    
       id    0.         
       rx    6.3917x    
       fn    3.4237n    
    total    3.4237n    




 element     0:m1
       rd  1.197e-20    
       rs   18.2071a    
       id    0.         
       rx    2.4225x    
       fn    2.3514n    
    total    2.3514n    




 element     0:m2
       rd  9.165e-21    
       rs   16.8335a    
       id    0.         
       rx    2.3126x    
       fn    2.1429n    
    total    2.1429n    




 element     0:m3
       rd  5.181e-20    
       rs  306.8383a    
       id    0.         
       rx    8.8140x    
       fn   26.8952n    
    total   26.8952n    




 element     0:m4
       rd  7.285e-21    
       rs   65.7135a    
       id    0.         
       rx    4.0789x    
       fn    5.7600n    
    total    5.7600n    




 element     0:mt
       rd    0.         
       rs    0.         
       id    0.         
       rx    0.         
       fn    0.         
    total    0.         




 **** total output noise voltage         =  40.5732n       sq v/hz
                                         = 201.4279u       v/rt hz
      transfer function value:
        v(1)/vinn                        =  11.3456       
      equivalent input noise at vinn                          
                                         =  17.7538u       /rt hz



 **** the results of the sqrt of integral (v**2 / freq)
      from fstart upto   12.8825       hz. using more freq points
      results in more accurate total noise values.

 **** total output noise voltage   =  361.0943u       volts
 **** total equivalent input noise =   31.8267u      



1****** HSPICE -- B-2008.09 32-BIT (Aug 26 2008) winnt ******                   
 ******  
 ***myop_2stage

  ******  noise analysis tnom=  25.000 temp=  25.000 *****

     frequency =  13.1826       hz




 **** mosfet squared noise voltages (sq v/hz)




 element     0:mb
       rd  4.592e-21    
       rs   73.8820a    
       id    0.         
       rx    6.3917x    
       fn    3.3458n    
    total    3.3458n    




 element     0:m1
       rd  1.197e-20    
       rs   18.2071a    
       id    0.         
       rx    2.4225x    
       fn    2.2979n    
    total    2.2979n    




 element     0:m2
       rd  9.165e-21    
       rs   16.8335a    
       id    0.         
       rx    2.3126x    
       fn    2.0942n    
    total    2.0942n    




 element     0:m3
       rd  5.181e-20    
       rs  306.8383a    
       id    0.         
       rx    8.8140x    
       fn   26.3739n    
    total   26.3739n    




 element     0:m4
       rd  7.285e-21    
       rs   65.7135a    
       id    0.         
       rx    4.0789x    
       fn    5.6483n    
    total    5.6483n    




 element     0:mt
       rd    0.         
       rs    0.         
       id    0.         
       rx    0.         
       fn    0.         
    total    0.         




 **** total output noise voltage         =  39.7601n       sq v/hz
                                         = 199.3992u       v/rt hz
      transfer function value:
        v(1)/vinn                        =  11.3456       
      equivalent input noise at vinn                          
                                         =  17.5750u       /rt hz



 **** the results of the sqrt of integral (v**2 / freq)
      from fstart upto   13.1826       hz. using more freq points
      results in more accurate total noise values.

 **** total output noise voltage   =  377.4137u       volts
 **** total equivalent input noise =   33.2651u      



1****** HSPICE -- B-2008.09 32-BIT (Aug 26 2008) winnt ******                   
 ******  
 ***myop_2stage

  ******  noise analysis tnom=  25.000 temp=  25.000 *****

     frequency =  13.4896       hz




 **** mosfet squared noise voltages (sq v/hz)




 element     0:mb
       rd  4.592e-21    
       rs   73.8820a    
       id    0.         
       rx    6.3917x    
       fn    3.2696n    
    total    3.2696n    




 element     0:m1
       rd  1.197e-20    
       rs   18.2071a    
       id    0.         
       rx    2.4225x    
       fn    2.2455n    
    total    2.2455n    




 element     0:m2
       rd  9.165e-21    
       rs   16.8335a    
       id    0.         
       rx    2.3126x    
       fn    2.0465n    
    total    2.0465n    




 element     0:m3
       rd  5.181e-20    
       rs  306.8383a    
       id    0.         
       rx    8.8140x    
       fn   25.8628n    
    total   25.8628n    




 element     0:m4
       rd  7.285e-21    
       rs   65.7135a    
       id    0.         
       rx    4.0789x    
       fn    5.5389n    
    total    5.5389n    




 element     0:mt
       rd    0.         
       rs    0.         
       id    0.         
       rx    0.         
       fn    0.         
    total    0.         




 **** total output noise voltage         =  38.9633n       sq v/hz
                                         = 197.3912u       v/rt hz
      transfer function value:
        v(1)/vinn                        =  11.3456       
      equivalent input noise at vinn                          
                                         =  17.3980u       /rt hz



 **** the results of the sqrt of integral (v**2 / freq)
      from fstart upto   13.4896       hz. using more freq points
      results in more accurate total noise values.

 **** total output noise voltage   =  393.0989u       volts
 **** total equivalent input noise =   34.6476u      



1****** HSPICE -- B-2008.09 32-BIT (Aug 26 2008) winnt ******                   
 ******  
 ***myop_2stage

  ******  noise analysis tnom=  25.000 temp=  25.000 *****

     frequency =  13.8038       hz




 **** mosfet squared noise voltages (sq v/hz)




 element     0:mb
       rd  4.592e-21    
       rs   73.8820a    
       id    0.         
       rx    6.3917x    
       fn    3.1952n    
    total    3.1952n    




 element     0:m1
       rd  1.197e-20    
       rs   18.2071a    
       id    0.         
       rx    2.4225x    
       fn    2.1944n    
    total    2.1944n    




 element     0:m2
       rd  9.165e-21    
       rs   16.8335a    
       id    0.         
       rx    2.3126x    
       fn    1.9999n    
    total    1.9999n    




 element     0:m3
       rd  5.181e-20    
       rs  306.8383a    
       id    0.         
       rx    8.8140x    
       fn   25.3615n    
    total   25.3615n    




 element     0:m4
       rd  7.285e-21    
       rs   65.7135a    
       id    0.         
       rx    4.0789x    
       fn    5.4315n    
    total    5.4315n    




 element     0:mt
       rd    0.         
       rs    0.         
       id    0.         
       rx    0.         
       fn    0.         
    total    0.         




 **** total output noise voltage         =  38.1825n       sq v/hz
                                         = 195.4035u       v/rt hz
      transfer function value:
        v(1)/vinn                        =  11.3456       
      equivalent input noise at vinn                          
                                         =  17.2228u       /rt hz



 **** the results of the sqrt of integral (v**2 / freq)
      from fstart upto   13.8038       hz. using more freq points
      results in more accurate total noise values.

 **** total output noise voltage   =  408.2229u       volts
 **** total equivalent input noise =   35.9806u      



1****** HSPICE -- B-2008.09 32-BIT (Aug 26 2008) winnt ******                   
 ******  
 ***myop_2stage

  ******  noise analysis tnom=  25.000 temp=  25.000 *****

     frequency =  14.1254       hz




 **** mosfet squared noise voltages (sq v/hz)




 element     0:mb
       rd  4.592e-21    
       rs   73.8820a    
       id    0.         
       rx    6.3917x    
       fn    3.1225n    
    total    3.1225n    




 element     0:m1
       rd  1.197e-20    
       rs   18.2071a    
       id    0.         
       rx    2.4225x    
       fn    2.1445n    
    total    2.1445n    




 element     0:m2
       rd  9.165e-21    
       rs   16.8335a    
       id    0.         
       rx    2.3126x    
       fn    1.9544n    
    total    1.9544n    




 element     0:m3
       rd  5.181e-20    
       rs  306.8383a    
       id    0.         
       rx    8.8140x    
       fn   24.8699n    
    total   24.8699n    




 element     0:m4
       rd  7.285e-21    
       rs   65.7135a    
       id    0.         
       rx    4.0789x    
       fn    5.3262n    
    total    5.3262n    




 element     0:mt
       rd    0.         
       rs    0.         
       id    0.         
       rx    0.         
       fn    0.         
    total    0.         




 **** total output noise voltage         =  37.4175n       sq v/hz
                                         = 193.4361u       v/rt hz
      transfer function value:
        v(1)/vinn                        =  11.3456       
      equivalent input noise at vinn                          
                                         =  17.0494u       /rt hz



 **** the results of the sqrt of integral (v**2 / freq)
      from fstart upto   14.1254       hz. using more freq points
      results in more accurate total noise values.

 **** total output noise voltage   =  422.8464u       volts
 **** total equivalent input noise =   37.2695u      



1****** HSPICE -- B-2008.09 32-BIT (Aug 26 2008) winnt ******                   
 ******  
 ***myop_2stage

  ******  noise analysis tnom=  25.000 temp=  25.000 *****

     frequency =  14.4544       hz




 **** mosfet squared noise voltages (sq v/hz)




 element     0:mb
       rd  4.592e-21    
       rs   73.8820a    
       id    0.         
       rx    6.3917x    
       fn    3.0514n    
    total    3.0514n    




 element     0:m1
       rd  1.197e-20    
       rs   18.2071a    
       id    0.         
       rx    2.4225x    
       fn    2.0957n    
    total    2.0957n    




 element     0:m2
       rd  9.165e-21    
       rs   16.8335a    
       id    0.         
       rx    2.3126x    
       fn    1.9099n    
    total    1.9099n    




 element     0:m3
       rd  5.181e-20    
       rs  306.8383a    
       id    0.         
       rx    8.8140x    
       fn   24.3879n    
    total   24.3879n    




 element     0:m4
       rd  7.285e-21    
       rs   65.7135a    
       id    0.         
       rx    4.0789x    
       fn    5.2230n    
    total    5.2230n    




 element     0:mt
       rd    0.         
       rs    0.         
       id    0.         
       rx    0.         
       fn    0.         
    total    0.         




 **** total output noise voltage         =  36.6679n       sq v/hz
                                         = 191.4886u       v/rt hz
      transfer function value:
        v(1)/vinn                        =  11.3456       
      equivalent input noise at vinn                          
                                         =  16.8777u       /rt hz



 **** the results of the sqrt of integral (v**2 / freq)
      from fstart upto   14.4544       hz. using more freq points
      results in more accurate total noise values.

 **** total output noise voltage   =  437.0195u       volts
 **** total equivalent input noise =   38.5187u      



1****** HSPICE -- B-2008.09 32-BIT (Aug 26 2008) winnt ******                   
 ******  
 ***myop_2stage

  ******  noise analysis tnom=  25.000 temp=  25.000 *****

     frequency =  14.7911       hz




 **** mosfet squared noise voltages (sq v/hz)




 element     0:mb
       rd  4.592e-21    
       rs   73.8820a    
       id    0.         
       rx    6.3917x    
       fn    2.9819n    
    total    2.9819n    




 element     0:m1
       rd  1.197e-20    
       rs   18.2071a    
       id    0.         
       rx    2.4225x    
       fn    2.0480n    
    total    2.0480n    




 element     0:m2
       rd  9.165e-21    
       rs   16.8335a    
       id    0.         
       rx    2.3126x    
       fn    1.8664n    
    total    1.8664n    




 element     0:m3
       rd  5.181e-20    
       rs  306.8383a    
       id    0.         
       rx    8.8140x    
       fn   23.9152n    
    total   23.9152n    




 element     0:m4
       rd  7.285e-21    
       rs   65.7135a    
       id    0.         
       rx    4.0789x    
       fn    5.1218n    
    total    5.1218n    




 element     0:mt
       rd    0.         
       rs    0.         
       id    0.         
       rx    0.         
       fn    0.         
    total    0.         




 **** total output noise voltage         =  35.9333n       sq v/hz
                                         = 189.5609u       v/rt hz
      transfer function value:
        v(1)/vinn                        =  11.3456       
      equivalent input noise at vinn                          
                                         =  16.7078u       /rt hz



 **** the results of the sqrt of integral (v**2 / freq)
      from fstart upto   14.7911       hz. using more freq points
      results in more accurate total noise values.

 **** total output noise voltage   =  450.7849u       volts
 **** total equivalent input noise =   39.7320u      



1****** HSPICE -- B-2008.09 32-BIT (Aug 26 2008) winnt ******                   
 ******  
 ***myop_2stage

  ******  noise analysis tnom=  25.000 temp=  25.000 *****

     frequency =  15.1356       hz




 **** mosfet squared noise voltages (sq v/hz)




 element     0:mb
       rd  4.592e-21    
       rs   73.8820a    
       id    0.         
       rx    6.3917x    
       fn    2.9141n    
    total    2.9141n    




 element     0:m1
       rd  1.197e-20    
       rs   18.2071a    
       id    0.         
       rx    2.4225x    
       fn    2.0013n    
    total    2.0013n    




 element     0:m2
       rd  9.165e-21    
       rs   16.8335a    
       id    0.         
       rx    2.3126x    
       fn    1.8239n    
    total    1.8239n    




 element     0:m3
       rd  5.181e-20    
       rs  306.8383a    
       id    0.         
       rx    8.8140x    
       fn   23.4517n    
    total   23.4517n    




 element     0:m4
       rd  7.285e-21    
       rs   65.7135a    
       id    0.         
       rx    4.0789x    
       fn    5.0225n    
    total    5.0225n    




 element     0:mt
       rd    0.         
       rs    0.         
       id    0.         
       rx    0.         
       fn    0.         
    total    0.         




 **** total output noise voltage         =  35.2136n       sq v/hz
                                         = 187.6528u       v/rt hz
      transfer function value:
        v(1)/vinn                        =  11.3456       
      equivalent input noise at vinn                          
                                         =  16.5396u       /rt hz



 **** the results of the sqrt of integral (v**2 / freq)
      from fstart upto   15.1356       hz. using more freq points
      results in more accurate total noise values.

 **** total output noise voltage   =  464.1791u       volts
 **** total equivalent input noise =   40.9126u      



1****** HSPICE -- B-2008.09 32-BIT (Aug 26 2008) winnt ******                   
 ******  
 ***myop_2stage

  ******  noise analysis tnom=  25.000 temp=  25.000 *****

     frequency =  15.4882       hz




 **** mosfet squared noise voltages (sq v/hz)




 element     0:mb
       rd  4.592e-21    
       rs   73.8820a    
       id    0.         
       rx    6.3917x    
       fn    2.8477n    
    total    2.8477n    




 element     0:m1
       rd  1.197e-20    
       rs   18.2071a    
       id    0.         
       rx    2.4225x    
       fn    1.9558n    
    total    1.9558n    




 element     0:m2
       rd  9.165e-21    
       rs   16.8335a    
       id    0.         
       rx    2.3126x    
       fn    1.7824n    
    total    1.7824n    




 element     0:m3
       rd  5.181e-20    
       rs  306.8383a    
       id    0.         
       rx    8.8140x    
       fn   22.9972n    
    total   22.9972n    




 element     0:m4
       rd  7.285e-21    
       rs   65.7135a    
       id    0.         
       rx    4.0789x    
       fn    4.9252n    
    total    4.9252n    




 element     0:mt
       rd    0.         
       rs    0.         
       id    0.         
       rx    0.         
       fn    0.         
    total    0.         




 **** total output noise voltage         =  34.5083n       sq v/hz
                                         = 185.7641u       v/rt hz
      transfer function value:
        v(1)/vinn                        =  11.3456       
      equivalent input noise at vinn                          
                                         =  16.3732u       /rt hz



 **** the results of the sqrt of integral (v**2 / freq)
      from fstart upto   15.4882       hz. using more freq points
      results in more accurate total noise values.

 **** total output noise voltage   =  477.2334u       volts
 **** total equivalent input noise =   42.0632u      



1****** HSPICE -- B-2008.09 32-BIT (Aug 26 2008) winnt ******                   
 ******  
 ***myop_2stage

  ******  noise analysis tnom=  25.000 temp=  25.000 *****

     frequency =  15.8489       hz




 **** mosfet squared noise voltages (sq v/hz)




 element     0:mb
       rd  4.592e-21    
       rs   73.8820a    
       id    0.         
       rx    6.3917x    
       fn    2.7829n    
    total    2.7829n    




 element     0:m1
       rd  1.197e-20    
       rs   18.2071a    
       id    0.         
       rx    2.4225x    
       fn    1.9113n    
    total    1.9113n    




 element     0:m2
       rd  9.165e-21    
       rs   16.8335a    
       id    0.         
       rx    2.3126x    
       fn    1.7419n    
    total    1.7419n    




 element     0:m3
       rd  5.181e-20    
       rs  306.8383a    
       id    0.         
       rx    8.8140x    
       fn   22.5515n    
    total   22.5515n    




 element     0:m4
       rd  7.285e-21    
       rs   65.7135a    
       id    0.         
       rx    4.0789x    
       fn    4.8297n    
    total    4.8297n    




 element     0:mt
       rd    0.         
       rs    0.         
       id    0.         
       rx    0.         
       fn    0.         
    total    0.         




 **** total output noise voltage         =  33.8172n       sq v/hz
                                         = 183.8945u       v/rt hz
      transfer function value:
        v(1)/vinn                        =  11.3456       
      equivalent input noise at vinn                          
                                         =  16.2084u       /rt hz



 **** the results of the sqrt of integral (v**2 / freq)
      from fstart upto   15.8489       hz. using more freq points
      results in more accurate total noise values.

 **** total output noise voltage   =  489.9751u       volts
 **** total equivalent input noise =   43.1862u      



1****** HSPICE -- B-2008.09 32-BIT (Aug 26 2008) winnt ******                   
 ******  
 ***myop_2stage

  ******  noise analysis tnom=  25.000 temp=  25.000 *****

     frequency =  16.2181       hz




 **** mosfet squared noise voltages (sq v/hz)




 element     0:mb
       rd  4.592e-21    
       rs   73.8820a    
       id    0.         
       rx    6.3917x    
       fn    2.7196n    
    total    2.7196n    




 element     0:m1
       rd  1.197e-20    
       rs   18.2071a    
       id    0.         
       rx    2.4225x    
       fn    1.8678n    
    total    1.8678n    




 element     0:m2
       rd  9.165e-21    
       rs   16.8335a    
       id    0.         
       rx    2.3126x    
       fn    1.7022n    
    total    1.7022n    




 element     0:m3
       rd  5.181e-20    
       rs  306.8383a    
       id    0.         
       rx    8.8140x    
       fn   22.1144n    
    total   22.1144n    




 element     0:m4
       rd  7.285e-21    
       rs   65.7135a    
       id    0.         
       rx    4.0789x    
       fn    4.7361n    
    total    4.7361n    




 element     0:mt
       rd    0.         
       rs    0.         
       id    0.         
       rx    0.         
       fn    0.         
    total    0.         




 **** total output noise voltage         =  33.1400n       sq v/hz
                                         = 182.0439u       v/rt hz
      transfer function value:
        v(1)/vinn                        =  11.3456       
      equivalent input noise at vinn                          
                                         =  16.0453u       /rt hz



 **** the results of the sqrt of integral (v**2 / freq)
      from fstart upto   16.2181       hz. using more freq points
      results in more accurate total noise values.

 **** total output noise voltage   =  502.4280u       volts
 **** total equivalent input noise =   44.2838u      



1****** HSPICE -- B-2008.09 32-BIT (Aug 26 2008) winnt ******                   
 ******  
 ***myop_2stage

  ******  noise analysis tnom=  25.000 temp=  25.000 *****

     frequency =  16.5959       hz




 **** mosfet squared noise voltages (sq v/hz)




 element     0:mb
       rd  4.592e-21    
       rs   73.8820a    
       id    0.         
       rx    6.3917x    
       fn    2.6577n    
    total    2.6577n    




 element     0:m1
       rd  1.197e-20    
       rs   18.2071a    
       id    0.         
       rx    2.4225x    
       fn    1.8252n    
    total    1.8252n    




 element     0:m2
       rd  9.165e-21    
       rs   16.8335a    
       id    0.         
       rx    2.3126x    
       fn    1.6635n    
    total    1.6635n    




 element     0:m3
       rd  5.181e-20    
       rs  306.8383a    
       id    0.         
       rx    8.8140x    
       fn   21.6858n    
    total   21.6858n    




 element     0:m4
       rd  7.285e-21    
       rs   65.7135a    
       id    0.         
       rx    4.0789x    
       fn    4.6443n    
    total    4.6443n    




 element     0:mt
       rd    0.         
       rs    0.         
       id    0.         
       rx    0.         
       fn    0.         
    total    0.         




 **** total output noise voltage         =  32.4764n       sq v/hz
                                         = 180.2122u       v/rt hz
      transfer function value:
        v(1)/vinn                        =  11.3456       
      equivalent input noise at vinn                          
                                         =  15.8838u       /rt hz



 **** the results of the sqrt of integral (v**2 / freq)
      from fstart upto   16.5959       hz. using more freq points
      results in more accurate total noise values.

 **** total output noise voltage   =  514.6134u       volts
 **** total equivalent input noise =   45.3578u      



1****** HSPICE -- B-2008.09 32-BIT (Aug 26 2008) winnt ******                   
 ******  
 ***myop_2stage

  ******  noise analysis tnom=  25.000 temp=  25.000 *****

     frequency =  16.9824       hz




 **** mosfet squared noise voltages (sq v/hz)




 element     0:mb
       rd  4.592e-21    
       rs   73.8820a    
       id    0.         
       rx    6.3917x    
       fn    2.5972n    
    total    2.5972n    




 element     0:m1
       rd  1.197e-20    
       rs   18.2071a    
       id    0.         
       rx    2.4225x    
       fn    1.7837n    
    total    1.7837n    




 element     0:m2
       rd  9.165e-21    
       rs   16.8335a    
       id    0.         
       rx    2.3126x    
       fn    1.6256n    
    total    1.6256n    




 element     0:m3
       rd  5.181e-20    
       rs  306.8383a    
       id    0.         
       rx    8.8140x    
       fn   21.2655n    
    total   21.2655n    




 element     0:m4
       rd  7.285e-21    
       rs   65.7135a    
       id    0.         
       rx    4.0789x    
       fn    4.5543n    
    total    4.5543n    




 element     0:mt
       rd    0.         
       rs    0.         
       id    0.         
       rx    0.         
       fn    0.         
    total    0.         




 **** total output noise voltage         =  31.8262n       sq v/hz
                                         = 178.3990u       v/rt hz
      transfer function value:
        v(1)/vinn                        =  11.3456       
      equivalent input noise at vinn                          
                                         =  15.7240u       /rt hz



 **** the results of the sqrt of integral (v**2 / freq)
      from fstart upto   16.9824       hz. using more freq points
      results in more accurate total noise values.

 **** total output noise voltage   =  526.5498u       volts
 **** total equivalent input noise =   46.4099u      



1****** HSPICE -- B-2008.09 32-BIT (Aug 26 2008) winnt ******                   
 ******  
 ***myop_2stage

  ******  noise analysis tnom=  25.000 temp=  25.000 *****

     frequency =  17.3780       hz




 **** mosfet squared noise voltages (sq v/hz)




 element     0:mb
       rd  4.592e-21    
       rs   73.8820a    
       id    0.         
       rx    6.3917x    
       fn    2.5380n    
    total    2.5380n    




 element     0:m1
       rd  1.197e-20    
       rs   18.2071a    
       id    0.         
       rx    2.4225x    
       fn    1.7431n    
    total    1.7431n    




 element     0:m2
       rd  9.165e-21    
       rs   16.8335a    
       id    0.         
       rx    2.3126x    
       fn    1.5886n    
    total    1.5886n    




 element     0:m3
       rd  5.181e-20    
       rs  306.8383a    
       id    0.         
       rx    8.8140x    
       fn   20.8533n    
    total   20.8533n    




 element     0:m4
       rd  7.285e-21    
       rs   65.7135a    
       id    0.         
       rx    4.0789x    
       fn    4.4660n    
    total    4.4660n    




 element     0:mt
       rd    0.         
       rs    0.         
       id    0.         
       rx    0.         
       fn    0.         
    total    0.         




 **** total output noise voltage         =  31.1890n       sq v/hz
                                         = 176.6042u       v/rt hz
      transfer function value:
        v(1)/vinn                        =  11.3456       
      equivalent input noise at vinn                          
                                         =  15.5658u       /rt hz



 **** the results of the sqrt of integral (v**2 / freq)
      from fstart upto   17.3780       hz. using more freq points
      results in more accurate total noise values.

 **** total output noise voltage   =  538.2539u       volts
 **** total equivalent input noise =   47.4415u      



1****** HSPICE -- B-2008.09 32-BIT (Aug 26 2008) winnt ******                   
 ******  
 ***myop_2stage

  ******  noise analysis tnom=  25.000 temp=  25.000 *****

     frequency =  17.7828       hz




 **** mosfet squared noise voltages (sq v/hz)




 element     0:mb
       rd  4.592e-21    
       rs   73.8820a    
       id    0.         
       rx    6.3917x    
       fn    2.4803n    
    total    2.4803n    




 element     0:m1
       rd  1.197e-20    
       rs   18.2071a    
       id    0.         
       rx    2.4225x    
       fn    1.7034n    
    total    1.7034n    




 element     0:m2
       rd  9.165e-21    
       rs   16.8335a    
       id    0.         
       rx    2.3126x    
       fn    1.5524n    
    total    1.5524n    




 element     0:m3
       rd  5.181e-20    
       rs  306.8383a    
       id    0.         
       rx    8.8140x    
       fn   20.4491n    
    total   20.4491n    




 element     0:m4
       rd  7.285e-21    
       rs   65.7135a    
       id    0.         
       rx    4.0789x    
       fn    4.3795n    
    total    4.3795n    




 element     0:mt
       rd    0.         
       rs    0.         
       id    0.         
       rx    0.         
       fn    0.         
    total    0.         




 **** total output noise voltage         =  30.5647n       sq v/hz
                                         = 174.8276u       v/rt hz
      transfer function value:
        v(1)/vinn                        =  11.3456       
      equivalent input noise at vinn                          
                                         =  15.4092u       /rt hz



 **** the results of the sqrt of integral (v**2 / freq)
      from fstart upto   17.7828       hz. using more freq points
      results in more accurate total noise values.

 **** total output noise voltage   =  549.7408u       volts
 **** total equivalent input noise =   48.4539u      



1****** HSPICE -- B-2008.09 32-BIT (Aug 26 2008) winnt ******                   
 ******  
 ***myop_2stage

  ******  noise analysis tnom=  25.000 temp=  25.000 *****

     frequency =  18.1970       hz




 **** mosfet squared noise voltages (sq v/hz)




 element     0:mb
       rd  4.592e-21    
       rs   73.8820a    
       id    0.         
       rx    6.3917x    
       fn    2.4238n    
    total    2.4238n    




 element     0:m1
       rd  1.197e-20    
       rs   18.2071a    
       id    0.         
       rx    2.4225x    
       fn    1.6646n    
    total    1.6646n    




 element     0:m2
       rd  9.165e-21    
       rs   16.8335a    
       id    0.         
       rx    2.3126x    
       fn    1.5171n    
    total    1.5171n    




 element     0:m3
       rd  5.181e-20    
       rs  306.8383a    
       id    0.         
       rx    8.8140x    
       fn   20.0528n    
    total   20.0528n    




 element     0:m4
       rd  7.285e-21    
       rs   65.7135a    
       id    0.         
       rx    4.0789x    
       fn    4.2946n    
    total    4.2946n    




 element     0:mt
       rd    0.         
       rs    0.         
       id    0.         
       rx    0.         
       fn    0.         
    total    0.         




 **** total output noise voltage         =  29.9529n       sq v/hz
                                         = 173.0691u       v/rt hz
      transfer function value:
        v(1)/vinn                        =  11.3456       
      equivalent input noise at vinn                          
                                         =  15.2542u       /rt hz



 **** the results of the sqrt of integral (v**2 / freq)
      from fstart upto   18.1970       hz. using more freq points
      results in more accurate total noise values.

 **** total output noise voltage   =  561.0237u       volts
 **** total equivalent input noise =   49.4484u      



1****** HSPICE -- B-2008.09 32-BIT (Aug 26 2008) winnt ******                   
 ******  
 ***myop_2stage

  ******  noise analysis tnom=  25.000 temp=  25.000 *****

     frequency =  18.6209       hz




 **** mosfet squared noise voltages (sq v/hz)




 element     0:mb
       rd  4.592e-21    
       rs   73.8820a    
       id    0.         
       rx    6.3917x    
       fn    2.3686n    
    total    2.3686n    




 element     0:m1
       rd  1.197e-20    
       rs   18.2071a    
       id    0.         
       rx    2.4225x    
       fn    1.6268n    
    total    1.6268n    




 element     0:m2
       rd  9.165e-21    
       rs   16.8335a    
       id    0.         
       rx    2.3126x    
       fn    1.4826n    
    total    1.4826n    




 element     0:m3
       rd  5.181e-20    
       rs  306.8383a    
       id    0.         
       rx    8.8140x    
       fn   19.6641n    
    total   19.6641n    




 element     0:m4
       rd  7.285e-21    
       rs   65.7135a    
       id    0.         
       rx    4.0789x    
       fn    4.2113n    
    total    4.2113n    




 element     0:mt
       rd    0.         
       rs    0.         
       id    0.         
       rx    0.         
       fn    0.         
    total    0.         




 **** total output noise voltage         =  29.3534n       sq v/hz
                                         = 171.3284u       v/rt hz
      transfer function value:
        v(1)/vinn                        =  11.3456       
      equivalent input noise at vinn                          
                                         =  15.1008u       /rt hz



 **** the results of the sqrt of integral (v**2 / freq)
      from fstart upto   18.6209       hz. using more freq points
      results in more accurate total noise values.

 **** total output noise voltage   =  572.1150u       volts
 **** total equivalent input noise =   50.4260u      



1****** HSPICE -- B-2008.09 32-BIT (Aug 26 2008) winnt ******                   
 ******  
 ***myop_2stage

  ******  noise analysis tnom=  25.000 temp=  25.000 *****

     frequency =  19.0546       hz




 **** mosfet squared noise voltages (sq v/hz)




 element     0:mb
       rd  4.592e-21    
       rs   73.8820a    
       id    0.         
       rx    6.3917x    
       fn    2.3147n    
    total    2.3147n    




 element     0:m1
       rd  1.197e-20    
       rs   18.2071a    
       id    0.         
       rx    2.4225x    
       fn    1.5897n    
    total    1.5897n    




 element     0:m2
       rd  9.165e-21    
       rs   16.8335a    
       id    0.         
       rx    2.3126x    
       fn    1.4488n    
    total    1.4488n    




 element     0:m3
       rd  5.181e-20    
       rs  306.8383a    
       id    0.         
       rx    8.8140x    
       fn   19.2830n    
    total   19.2830n    




 element     0:m4
       rd  7.285e-21    
       rs   65.7135a    
       id    0.         
       rx    4.0789x    
       fn    4.1297n    
    total    4.1297n    




 element     0:mt
       rd    0.         
       rs    0.         
       id    0.         
       rx    0.         
       fn    0.         
    total    0.         




 **** total output noise voltage         =  28.7660n       sq v/hz
                                         = 169.6054u       v/rt hz
      transfer function value:
        v(1)/vinn                        =  11.3456       
      equivalent input noise at vinn                          
                                         =  14.9489u       /rt hz



 **** the results of the sqrt of integral (v**2 / freq)
      from fstart upto   19.0546       hz. using more freq points
      results in more accurate total noise values.

 **** total output noise voltage   =  583.0257u       volts
 **** total equivalent input noise =   51.3876u      



1****** HSPICE -- B-2008.09 32-BIT (Aug 26 2008) winnt ******                   
 ******  
 ***myop_2stage

  ******  noise analysis tnom=  25.000 temp=  25.000 *****

     frequency =  19.4984       hz




 **** mosfet squared noise voltages (sq v/hz)




 element     0:mb
       rd  4.592e-21    
       rs   73.8820a    
       id    0.         
       rx    6.3917x    
       fn    2.2620n    
    total    2.2620n    




 element     0:m1
       rd  1.197e-20    
       rs   18.2071a    
       id    0.         
       rx    2.4225x    
       fn    1.5535n    
    total    1.5535n    




 element     0:m2
       rd  9.165e-21    
       rs   16.8335a    
       id    0.         
       rx    2.3126x    
       fn    1.4158n    
    total    1.4158n    




 element     0:m3
       rd  5.181e-20    
       rs  306.8383a    
       id    0.         
       rx    8.8140x    
       fn   18.9093n    
    total   18.9093n    




 element     0:m4
       rd  7.285e-21    
       rs   65.7135a    
       id    0.         
       rx    4.0789x    
       fn    4.0497n    
    total    4.0497n    




 element     0:mt
       rd    0.         
       rs    0.         
       id    0.         
       rx    0.         
       fn    0.         
    total    0.         




 **** total output noise voltage         =  28.1903n       sq v/hz
                                         = 167.8998u       v/rt hz
      transfer function value:
        v(1)/vinn                        =  11.3456       
      equivalent input noise at vinn                          
                                         =  14.7986u       /rt hz



 **** the results of the sqrt of integral (v**2 / freq)
      from fstart upto   19.4984       hz. using more freq points
      results in more accurate total noise values.

 **** total output noise voltage   =  593.7657u       volts
 **** total equivalent input noise =   52.3343u      



1****** HSPICE -- B-2008.09 32-BIT (Aug 26 2008) winnt ******                   
 ******  
 ***myop_2stage

  ******  noise analysis tnom=  25.000 temp=  25.000 *****

     frequency =  19.9526       hz




 **** mosfet squared noise voltages (sq v/hz)




 element     0:mb
       rd  4.592e-21    
       rs   73.8820a    
       id    0.         
       rx    6.3917x    
       fn    2.2105n    
    total    2.2105n    




 element     0:m1
       rd  1.197e-20    
       rs   18.2071a    
       id    0.         
       rx    2.4225x    
       fn    1.5182n    
    total    1.5182n    




 element     0:m2
       rd  9.165e-21    
       rs   16.8335a    
       id    0.         
       rx    2.3126x    
       fn    1.3836n    
    total    1.3836n    




 element     0:m3
       rd  5.181e-20    
       rs  306.8383a    
       id    0.         
       rx    8.8140x    
       fn   18.5428n    
    total   18.5428n    




 element     0:m4
       rd  7.285e-21    
       rs   65.7135a    
       id    0.         
       rx    4.0789x    
       fn    3.9712n    
    total    3.9712n    




 element     0:mt
       rd    0.         
       rs    0.         
       id    0.         
       rx    0.         
       fn    0.         
    total    0.         




 **** total output noise voltage         =  27.6263n       sq v/hz
                                         = 166.2115u       v/rt hz
      transfer function value:
        v(1)/vinn                        =  11.3456       
      equivalent input noise at vinn                          
                                         =  14.6498u       /rt hz



 **** the results of the sqrt of integral (v**2 / freq)
      from fstart upto   19.9526       hz. using more freq points
      results in more accurate total noise values.

 **** total output noise voltage   =  604.3444u       volts
 **** total equivalent input noise =   53.2667u      



1****** HSPICE -- B-2008.09 32-BIT (Aug 26 2008) winnt ******                   
 ******  
 ***myop_2stage

  ******  noise analysis tnom=  25.000 temp=  25.000 *****

     frequency =  20.4174       hz




 **** mosfet squared noise voltages (sq v/hz)




 element     0:mb
       rd  4.592e-21    
       rs   73.8820a    
       id    0.         
       rx    6.3917x    
       fn    2.1602n    
    total    2.1602n    




 element     0:m1
       rd  1.197e-20    
       rs   18.2071a    
       id    0.         
       rx    2.4225x    
       fn    1.4836n    
    total    1.4836n    




 element     0:m2
       rd  9.165e-21    
       rs   16.8335a    
       id    0.         
       rx    2.3126x    
       fn    1.3521n    
    total    1.3521n    




 element     0:m3
       rd  5.181e-20    
       rs  306.8383a    
       id    0.         
       rx    8.8140x    
       fn   18.1834n    
    total   18.1834n    




 element     0:m4
       rd  7.285e-21    
       rs   65.7135a    
       id    0.         
       rx    4.0789x    
       fn    3.8942n    
    total    3.8942n    




 element     0:mt
       rd    0.         
       rs    0.         
       id    0.         
       rx    0.         
       fn    0.         
    total    0.         




 **** total output noise voltage         =  27.0735n       sq v/hz
                                         = 164.5404u       v/rt hz
      transfer function value:
        v(1)/vinn                        =  11.3456       
      equivalent input noise at vinn                          
                                         =  14.5025u       /rt hz



 **** the results of the sqrt of integral (v**2 / freq)
      from fstart upto   20.4174       hz. using more freq points
      results in more accurate total noise values.

 **** total output noise voltage   =  614.7701u       volts
 **** total equivalent input noise =   54.1856u      



1****** HSPICE -- B-2008.09 32-BIT (Aug 26 2008) winnt ******                   
 ******  
 ***myop_2stage

  ******  noise analysis tnom=  25.000 temp=  25.000 *****

     frequency =  20.8930       hz




 **** mosfet squared noise voltages (sq v/hz)




 element     0:mb
       rd  4.592e-21    
       rs   73.8820a    
       id    0.         
       rx    6.3917x    
       fn    2.1110n    
    total    2.1110n    




 element     0:m1
       rd  1.197e-20    
       rs   18.2071a    
       id    0.         
       rx    2.4225x    
       fn    1.4498n    
    total    1.4498n    




 element     0:m2
       rd  9.165e-21    
       rs   16.8335a    
       id    0.         
       rx    2.3126x    
       fn    1.3213n    
    total    1.3213n    




 element     0:m3
       rd  5.181e-20    
       rs  306.8383a    
       id    0.         
       rx    8.8140x    
       fn   17.8310n    
    total   17.8310n    




 element     0:m4
       rd  7.285e-21    
       rs   65.7135a    
       id    0.         
       rx    4.0789x    
       fn    3.8187n    
    total    3.8187n    




 element     0:mt
       rd    0.         
       rs    0.         
       id    0.         
       rx    0.         
       fn    0.         
    total    0.         




 **** total output noise voltage         =  26.5319n       sq v/hz
                                         = 162.8862u       v/rt hz
      transfer function value:
        v(1)/vinn                        =  11.3456       
      equivalent input noise at vinn                          
                                         =  14.3567u       /rt hz



 **** the results of the sqrt of integral (v**2 / freq)
      from fstart upto   20.8930       hz. using more freq points
      results in more accurate total noise values.

 **** total output noise voltage   =  625.0506u       volts
 **** total equivalent input noise =   55.0917u      



1****** HSPICE -- B-2008.09 32-BIT (Aug 26 2008) winnt ******                   
 ******  
 ***myop_2stage

  ******  noise analysis tnom=  25.000 temp=  25.000 *****

     frequency =  21.3796       hz




 **** mosfet squared noise voltages (sq v/hz)




 element     0:mb
       rd  4.592e-21    
       rs   73.8820a    
       id    0.         
       rx    6.3917x    
       fn    2.0630n    
    total    2.0630n    




 element     0:m1
       rd  1.197e-20    
       rs   18.2071a    
       id    0.         
       rx    2.4225x    
       fn    1.4168n    
    total    1.4168n    




 element     0:m2
       rd  9.165e-21    
       rs   16.8335a    
       id    0.         
       rx    2.3126x    
       fn    1.2913n    
    total    1.2913n    




 element     0:m3
       rd  5.181e-20    
       rs  306.8383a    
       id    0.         
       rx    8.8140x    
       fn   17.4854n    
    total   17.4854n    




 element     0:m4
       rd  7.285e-21    
       rs   65.7135a    
       id    0.         
       rx    4.0789x    
       fn    3.7447n    
    total    3.7447n    




 element     0:mt
       rd    0.         
       rs    0.         
       id    0.         
       rx    0.         
       fn    0.         
    total    0.         




 **** total output noise voltage         =  26.0012n       sq v/hz
                                         = 161.2488u       v/rt hz
      transfer function value:
        v(1)/vinn                        =  11.3456       
      equivalent input noise at vinn                          
                                         =  14.2124u       /rt hz



 **** the results of the sqrt of integral (v**2 / freq)
      from fstart upto   21.3796       hz. using more freq points
      results in more accurate total noise values.

 **** total output noise voltage   =  635.1930u       volts
 **** total equivalent input noise =   55.9856u      



1****** HSPICE -- B-2008.09 32-BIT (Aug 26 2008) winnt ******                   
 ******  
 ***myop_2stage

  ******  noise analysis tnom=  25.000 temp=  25.000 *****

     frequency =  21.8776       hz




 **** mosfet squared noise voltages (sq v/hz)




 element     0:mb
       rd  4.592e-21    
       rs   73.8820a    
       id    0.         
       rx    6.3917x    
       fn    2.0160n    
    total    2.0160n    




 element     0:m1
       rd  1.197e-20    
       rs   18.2071a    
       id    0.         
       rx    2.4225x    
       fn    1.3846n    
    total    1.3846n    




 element     0:m2
       rd  9.165e-21    
       rs   16.8335a    
       id    0.         
       rx    2.3126x    
       fn    1.2619n    
    total    1.2619n    




 element     0:m3
       rd  5.181e-20    
       rs  306.8383a    
       id    0.         
       rx    8.8140x    
       fn   17.1465n    
    total   17.1465n    




 element     0:m4
       rd  7.285e-21    
       rs   65.7135a    
       id    0.         
       rx    4.0789x    
       fn    3.6721n    
    total    3.6721n    




 element     0:mt
       rd    0.         
       rs    0.         
       id    0.         
       rx    0.         
       fn    0.         
    total    0.         




 **** total output noise voltage         =  25.4811n       sq v/hz
                                         = 159.6280u       v/rt hz
      transfer function value:
        v(1)/vinn                        =  11.3456       
      equivalent input noise at vinn                          
                                         =  14.0695u       /rt hz



 **** the results of the sqrt of integral (v**2 / freq)
      from fstart upto   21.8776       hz. using more freq points
      results in more accurate total noise values.

 **** total output noise voltage   =  645.2040u       volts
 **** total equivalent input noise =   56.8680u      



1****** HSPICE -- B-2008.09 32-BIT (Aug 26 2008) winnt ******                   
 ******  
 ***myop_2stage

  ******  noise analysis tnom=  25.000 temp=  25.000 *****

     frequency =  22.3872       hz




 **** mosfet squared noise voltages (sq v/hz)




 element     0:mb
       rd  4.592e-21    
       rs   73.8820a    
       id    0.         
       rx    6.3917x    
       fn    1.9701n    
    total    1.9701n    




 element     0:m1
       rd  1.197e-20    
       rs   18.2071a    
       id    0.         
       rx    2.4225x    
       fn    1.3531n    
    total    1.3531n    




 element     0:m2
       rd  9.165e-21    
       rs   16.8335a    
       id    0.         
       rx    2.3126x    
       fn    1.2331n    
    total    1.2331n    




 element     0:m3
       rd  5.181e-20    
       rs  306.8383a    
       id    0.         
       rx    8.8140x    
       fn   16.8141n    
    total   16.8141n    




 element     0:m4
       rd  7.285e-21    
       rs   65.7135a    
       id    0.         
       rx    4.0789x    
       fn    3.6010n    
    total    3.6010n    




 element     0:mt
       rd    0.         
       rs    0.         
       id    0.         
       rx    0.         
       fn    0.         
    total    0.         




 **** total output noise voltage         =  24.9715n       sq v/hz
                                         = 158.0237u       v/rt hz
      transfer function value:
        v(1)/vinn                        =  11.3456       
      equivalent input noise at vinn                          
                                         =  13.9281u       /rt hz



 **** the results of the sqrt of integral (v**2 / freq)
      from fstart upto   22.3872       hz. using more freq points
      results in more accurate total noise values.

 **** total output noise voltage   =  655.0897u       volts
 **** total equivalent input noise =   57.7393u      



1****** HSPICE -- B-2008.09 32-BIT (Aug 26 2008) winnt ******                   
 ******  
 ***myop_2stage

  ******  noise analysis tnom=  25.000 temp=  25.000 *****

     frequency =  22.9087       hz




 **** mosfet squared noise voltages (sq v/hz)




 element     0:mb
       rd  4.592e-21    
       rs   73.8820a    
       id    0.         
       rx    6.3917x    
       fn    1.9253n    
    total    1.9253n    




 element     0:m1
       rd  1.197e-20    
       rs   18.2071a    
       id    0.         
       rx    2.4225x    
       fn    1.3223n    
    total    1.3223n    




 element     0:m2
       rd  9.165e-21    
       rs   16.8335a    
       id    0.         
       rx    2.3126x    
       fn    1.2051n    
    total    1.2051n    




 element     0:m3
       rd  5.181e-20    
       rs  306.8383a    
       id    0.         
       rx    8.8140x    
       fn   16.4883n    
    total   16.4883n    




 element     0:m4
       rd  7.285e-21    
       rs   65.7135a    
       id    0.         
       rx    4.0789x    
       fn    3.5312n    
    total    3.5312n    




 element     0:mt
       rd    0.         
       rs    0.         
       id    0.         
       rx    0.         
       fn    0.         
    total    0.         




 **** total output noise voltage         =  24.4721n       sq v/hz
                                         = 156.4356u       v/rt hz
      transfer function value:
        v(1)/vinn                        =  11.3456       
      equivalent input noise at vinn                          
                                         =  13.7882u       /rt hz



 **** the results of the sqrt of integral (v**2 / freq)
      from fstart upto   22.9087       hz. using more freq points
      results in more accurate total noise values.

 **** total output noise voltage   =  664.8557u       volts
 **** total equivalent input noise =   58.6001u      



1****** HSPICE -- B-2008.09 32-BIT (Aug 26 2008) winnt ******                   
 ******  
 ***myop_2stage

  ******  noise analysis tnom=  25.000 temp=  25.000 *****

     frequency =  23.4423       hz




 **** mosfet squared noise voltages (sq v/hz)




 element     0:mb
       rd  4.592e-21    
       rs   73.8820a    
       id    0.         
       rx    6.3917x    
       fn    1.8815n    
    total    1.8815n    




 element     0:m1
       rd  1.197e-20    
       rs   18.2071a    
       id    0.         
       rx    2.4225x    
       fn    1.2922n    
    total    1.2922n    




 element     0:m2
       rd  9.165e-21    
       rs   16.8335a    
       id    0.         
       rx    2.3126x    
       fn    1.1776n    
    total    1.1776n    




 element     0:m3
       rd  5.181e-20    
       rs  306.8383a    
       id    0.         
       rx    8.8140x    
       fn   16.1687n    
    total   16.1687n    




 element     0:m4
       rd  7.285e-21    
       rs   65.7135a    
       id    0.         
       rx    4.0789x    
       fn    3.4627n    
    total    3.4627n    




 element     0:mt
       rd    0.         
       rs    0.         
       id    0.         
       rx    0.         
       fn    0.         
    total    0.         




 **** total output noise voltage         =  23.9827n       sq v/hz
                                         = 154.8635u       v/rt hz
      transfer function value:
        v(1)/vinn                        =  11.3456       
      equivalent input noise at vinn                          
[...]




 **** total output noise voltage         = 5.992e-20       sq v/hz
                                         = 244.7893p       v/rt hz
      transfer function value:
        v(1)/vinn                        = 134.7634m      
      equivalent input noise at vinn                          
                                         =   1.8164n       /rt hz



 **** the results of the sqrt of integral (v**2 / freq)
      from fstart upto  812.8305x      hz. using more freq points
      results in more accurate total noise values.

 **** total output noise voltage   =    3.8000m       volts
 **** total equivalent input noise =  372.8892u      



1****** HSPICE -- B-2008.09 32-BIT (Aug 26 2008) winnt ******                   
 ******  
 ***myop_2stage

  ******  noise analysis tnom=  25.000 temp=  25.000 *****

     frequency = 831.7638x      hz




 **** mosfet squared noise voltages (sq v/hz)




 element     0:mb
       rd  2.715e-21    
       rs  1.874e-24    
       id    0.         
       rx    1.0181k    
       fn  1.345e-24    
    total  2.718e-21    




 element     0:m1
       rd  3.337e-20    
       rs  2.827e-22    
       id    0.         
       rx    9.5193k    
       fn  5.624e-22    
    total  3.422e-20    




 element     0:m2
       rd  3.685e-23    
       rs  9.384e-24    
       id    0.         
       rx  477.5071     
       fn  1.415e-24    
    total  4.765e-23    




 element     0:m3
       rd  1.294e-20    
       rs  4.383e-22    
       id    0.         
       rx   10.5340k    
       fn  8.831e-21    
    total  2.221e-20    




 element     0:m4
       rd  3.406e-23    
       rs  1.154e-24    
       id    0.         
       rx  540.5255     
       fn  2.325e-23    
    total  5.847e-23    




 element     0:mt
       rd    0.         
       rs    0.         
       id    0.         
       rx    0.         
       fn    0.         
    total    0.         




 **** total output noise voltage         = 5.925e-20       sq v/hz
                                         = 243.4048p       v/rt hz
      transfer function value:
        v(1)/vinn                        = 134.4621m      
      equivalent input noise at vinn                          
                                         =   1.8102n       /rt hz



 **** the results of the sqrt of integral (v**2 / freq)
      from fstart upto  831.7638x      hz. using more freq points
      results in more accurate total noise values.

 **** total output noise voltage   =    3.8000m       volts
 **** total equivalent input noise =  372.9727u      



1****** HSPICE -- B-2008.09 32-BIT (Aug 26 2008) winnt ******                   
 ******  
 ***myop_2stage

  ******  noise analysis tnom=  25.000 temp=  25.000 *****

     frequency = 851.1380x      hz




 **** mosfet squared noise voltages (sq v/hz)




 element     0:mb
       rd  2.714e-21    
       rs  1.789e-24    
       id    0.         
       rx  994.7026     
       fn  1.255e-24    
    total  2.717e-21    




 element     0:m1
       rd  3.337e-20    
       rs  2.703e-22    
       id    0.         
       rx    9.3027k    
       fn  5.248e-22    
    total  3.417e-20    




 element     0:m2
       rd  3.684e-23    
       rs  9.352e-24    
       id    0.         
       rx  466.5529     
       fn  1.320e-24    
    total  4.752e-23    




 element     0:m3
       rd  1.294e-20    
       rs  4.186e-22    
       id    0.         
       rx   10.2942k    
       fn  8.270e-21    
    total  2.163e-20    




 element     0:m4
       rd  3.405e-23    
       rs  1.102e-24    
       id    0.         
       rx  528.1256     
       fn  2.177e-23    
    total  5.692e-23    




 element     0:mt
       rd    0.         
       rs    0.         
       id    0.         
       rx    0.         
       fn    0.         
    total    0.         




 **** total output noise voltage         = 5.861e-20       sq v/hz
                                         = 242.1001p       v/rt hz
      transfer function value:
        v(1)/vinn                        = 134.1738m      
      equivalent input noise at vinn                          
                                         =   1.8044n       /rt hz



 **** the results of the sqrt of integral (v**2 / freq)
      from fstart upto  851.1380x      hz. using more freq points
      results in more accurate total noise values.

 **** total output noise voltage   =    3.8000m       volts
 **** total equivalent input noise =  373.0575u      



1****** HSPICE -- B-2008.09 32-BIT (Aug 26 2008) winnt ******                   
 ******  
 ***myop_2stage

  ******  noise analysis tnom=  25.000 temp=  25.000 *****

     frequency = 870.9636x      hz




 **** mosfet squared noise voltages (sq v/hz)




 element     0:mb
       rd  2.713e-21    
       rs  1.708e-24    
       id    0.         
       rx  971.8916     
       fn  1.171e-24    
    total  2.716e-21    




 element     0:m1
       rd  3.337e-20    
       rs  2.586e-22    
       id    0.         
       rx    9.0909k    
       fn  4.898e-22    
    total  3.412e-20    




 element     0:m2
       rd  3.683e-23    
       rs  9.313e-24    
       id    0.         
       rx  455.8538     
       fn  1.232e-24    
    total  4.737e-23    




 element     0:m3
       rd  1.294e-20    
       rs  3.997e-22    
       id    0.         
       rx   10.0598k    
       fn  7.745e-21    
    total  2.108e-20    




 element     0:m4
       rd  3.404e-23    
       rs  1.052e-24    
       id    0.         
       rx  516.0144     
       fn  2.038e-23    
    total  5.547e-23    




 element     0:mt
       rd    0.         
       rs    0.         
       id    0.         
       rx    0.         
       fn    0.         
    total    0.         




 **** total output noise voltage         = 5.802e-20       sq v/hz
                                         = 240.8709p       v/rt hz
      transfer function value:
        v(1)/vinn                        = 133.8978m      
      equivalent input noise at vinn                          
                                         =   1.7989n       /rt hz



 **** the results of the sqrt of integral (v**2 / freq)
      from fstart upto  870.9636x      hz. using more freq points
      results in more accurate total noise values.

 **** total output noise voltage   =    3.8000m       volts
 **** total equivalent input noise =  373.1437u      



1****** HSPICE -- B-2008.09 32-BIT (Aug 26 2008) winnt ******                   
 ******  
 ***myop_2stage

  ******  noise analysis tnom=  25.000 temp=  25.000 *****

     frequency = 891.2509x      hz




 **** mosfet squared noise voltages (sq v/hz)




 element     0:mb
       rd  2.712e-21    
       rs  1.631e-24    
       id    0.         
       rx  949.6112     
       fn  1.092e-24    
    total  2.714e-21    




 element     0:m1
       rd  3.337e-20    
       rs  2.473e-22    
       id    0.         
       rx    8.8840k    
       fn  4.571e-22    
    total  3.407e-20    




 element     0:m2
       rd  3.682e-23    
       rs  9.280e-24    
       id    0.         
       rx  445.4035     
       fn  1.149e-24    
    total  4.725e-23    




 element     0:m3
       rd  1.294e-20    
       rs  3.817e-22    
       id    0.         
       rx    9.8308k    
       fn  7.253e-21    
    total  2.057e-20    




 element     0:m4
       rd  3.403e-23    
       rs  1.004e-24    
       id    0.         
       rx  504.1849     
       fn  1.908e-23    
    total  5.411e-23    




 element     0:mt
       rd    0.         
       rs    0.         
       id    0.         
       rx    0.         
       fn    0.         
    total    0.         




 **** total output noise voltage         = 5.746e-20       sq v/hz
                                         = 239.7130p       v/rt hz
      transfer function value:
        v(1)/vinn                        = 133.6338m      
      equivalent input noise at vinn                          
                                         =   1.7938n       /rt hz



 **** the results of the sqrt of integral (v**2 / freq)
      from fstart upto  891.2509x      hz. using more freq points
      results in more accurate total noise values.

 **** total output noise voltage   =    3.8000m       volts
 **** total equivalent input noise =  373.2314u      



1****** HSPICE -- B-2008.09 32-BIT (Aug 26 2008) winnt ******                   
 ******  
 ***myop_2stage

  ******  noise analysis tnom=  25.000 temp=  25.000 *****

     frequency = 912.0108x      hz




 **** mosfet squared noise voltages (sq v/hz)




 element     0:mb
       rd  2.711e-21    
       rs  1.557e-24    
       id    0.         
       rx  927.8485     
       fn  1.019e-24    
    total  2.714e-21    




 element     0:m1
       rd  3.337e-20    
       rs  2.365e-22    
       id    0.         
       rx    8.6818k    
       fn  4.266e-22    
    total  3.403e-20    




 element     0:m2
       rd  3.681e-23    
       rs  9.257e-24    
       id    0.         
       rx  435.1959     
       fn  1.072e-24    
    total  4.713e-23    




 element     0:m3
       rd  1.294e-20    
       rs  3.645e-22    
       id    0.         
       rx    9.6070k    
       fn  6.792e-21    
    total  2.009e-20    




 element     0:m4
       rd  3.402e-23    
       rs  9.585e-25    
       id    0.         
       rx  492.6302     
       fn  1.786e-23    
    total  5.283e-23    




 element     0:mt
       rd    0.         
       rs    0.         
       id    0.         
       rx    0.         
       fn    0.         
    total    0.         




 **** total output noise voltage         = 5.694e-20       sq v/hz
                                         = 238.6229p       v/rt hz
      transfer function value:
        v(1)/vinn                        = 133.3811m      
      equivalent input noise at vinn                          
                                         =   1.7890n       /rt hz



 **** the results of the sqrt of integral (v**2 / freq)
      from fstart upto  912.0108x      hz. using more freq points
      results in more accurate total noise values.

 **** total output noise voltage   =    3.8000m       volts
 **** total equivalent input noise =  373.3207u      



1****** HSPICE -- B-2008.09 32-BIT (Aug 26 2008) winnt ******                   
 ******  
 ***myop_2stage

  ******  noise analysis tnom=  25.000 temp=  25.000 *****

     frequency = 933.2543x      hz




 **** mosfet squared noise voltages (sq v/hz)




 element     0:mb
       rd  2.710e-21    
       rs  1.486e-24    
       id    0.         
       rx  906.5909     
       fn  9.508e-25    
    total  2.712e-21    




 element     0:m1
       rd  3.337e-20    
       rs  2.263e-22    
       id    0.         
       rx    8.4842k    
       fn  3.981e-22    
    total  3.399e-20    




 element     0:m2
       rd  3.679e-23    
       rs  9.224e-24    
       id    0.         
       rx  425.2253     
       fn  1.000e-24    
    total  4.702e-23    




 element     0:m3
       rd  1.294e-20    
       rs  3.481e-22    
       id    0.         
       rx    9.3883k    
       fn  6.361e-21    
    total  1.965e-20    




 element     0:m4
       rd  3.401e-23    
       rs  9.151e-25    
       id    0.         
       rx  481.3437     
       fn  1.672e-23    
    total  5.164e-23    




 element     0:mt
       rd    0.         
       rs    0.         
       id    0.         
       rx    0.         
       fn    0.         
    total    0.         




 **** total output noise voltage         = 5.645e-20       sq v/hz
                                         = 237.5962p       v/rt hz
      transfer function value:
        v(1)/vinn                        = 133.1394m      
      equivalent input noise at vinn                          
                                         =   1.7846n       /rt hz



 **** the results of the sqrt of integral (v**2 / freq)
      from fstart upto  933.2543x      hz. using more freq points
      results in more accurate total noise values.

 **** total output noise voltage   =    3.8000m       volts
 **** total equivalent input noise =  373.4115u      



1****** HSPICE -- B-2008.09 32-BIT (Aug 26 2008) winnt ******                   
 ******  
 ***myop_2stage

  ******  noise analysis tnom=  25.000 temp=  25.000 *****

     frequency = 954.9926x      hz




 **** mosfet squared noise voltages (sq v/hz)




 element     0:mb
       rd  2.709e-21    
       rs  1.419e-24    
       id    0.         
       rx  885.8263     
       fn  8.871e-25    
    total  2.712e-21    




 element     0:m1
       rd  3.337e-20    
       rs  2.165e-22    
       id    0.         
       rx    8.2911k    
       fn  3.716e-22    
    total  3.396e-20    




 element     0:m2
       rd  3.678e-23    
       rs  9.199e-24    
       id    0.         
       rx  415.4859     
       fn  9.331e-25    
    total  4.691e-23    




 element     0:m3
       rd  1.294e-20    
       rs  3.325e-22    
       id    0.         
       rx    9.1746k    
       fn  5.957e-21    
    total  1.923e-20    




 element     0:m4
       rd  3.400e-23    
       rs  8.737e-25    
       id    0.         
       rx  470.3190     
       fn  1.565e-23    
    total  5.052e-23    




 element     0:mt
       rd    0.         
       rs    0.         
       id    0.         
       rx    0.         
       fn    0.         
    total    0.         




 **** total output noise voltage         = 5.599e-20       sq v/hz
                                         = 236.6300p       v/rt hz
      transfer function value:
        v(1)/vinn                        = 132.9081m      
      equivalent input noise at vinn                          
                                         =   1.7804n       /rt hz



 **** the results of the sqrt of integral (v**2 / freq)
      from fstart upto  954.9926x      hz. using more freq points
      results in more accurate total noise values.

 **** total output noise voltage   =    3.8000m       volts
 **** total equivalent input noise =  373.5040u      



1****** HSPICE -- B-2008.09 32-BIT (Aug 26 2008) winnt ******                   
 ******  
 ***myop_2stage

  ******  noise analysis tnom=  25.000 temp=  25.000 *****

     frequency = 977.2372x      hz




 **** mosfet squared noise voltages (sq v/hz)




 element     0:mb
       rd  2.709e-21    
       rs  1.355e-24    
       id    0.         
       rx  865.5429     
       fn  8.276e-25    
    total  2.711e-21    




 element     0:m1
       rd  3.337e-20    
       rs  2.071e-22    
       id    0.         
       rx    8.1023k    
       fn  3.468e-22    
    total  3.392e-20    




 element     0:m2
       rd  3.677e-23    
       rs  9.169e-24    
       id    0.         
       rx  405.9723     
       fn  8.706e-25    
    total  4.681e-23    




 element     0:m3
       rd  1.294e-20    
       rs  3.175e-22    
       id    0.         
       rx    8.9658k    
       fn  5.578e-21    
    total  1.883e-20    




 element     0:m4
       rd  3.399e-23    
       rs  8.341e-25    
       id    0.         
       rx  459.5497     
       fn  1.466e-23    
    total  4.948e-23    




 element     0:mt
       rd    0.         
       rs    0.         
       id    0.         
       rx    0.         
       fn    0.         
    total    0.         




 **** total output noise voltage         = 5.556e-20       sq v/hz
                                         = 235.7209p       v/rt hz
      transfer function value:
        v(1)/vinn                        = 132.6869m      
      equivalent input noise at vinn                          
                                         =   1.7765n       /rt hz



 **** the results of the sqrt of integral (v**2 / freq)
      from fstart upto  977.2372x      hz. using more freq points
      results in more accurate total noise values.

 **** total output noise voltage   =    3.8000m       volts
 **** total equivalent input noise =  373.5981u      



1****** HSPICE -- B-2008.09 32-BIT (Aug 26 2008) winnt ******                   
 ******  
 ***myop_2stage

  ******  noise analysis tnom=  25.000 temp=  25.000 *****

     frequency =   1.0000g      hz




 **** mosfet squared noise voltages (sq v/hz)




 element     0:mb
       rd  2.708e-21    
       rs  1.294e-24    
       id    0.         
       rx  845.7292     
       fn  7.722e-25    
    total  2.710e-21    




 element     0:m1
       rd  3.337e-20    
       rs  1.982e-22    
       id    0.         
       rx    7.9179k    
       fn  3.236e-22    
    total  3.389e-20    




 element     0:m2
       rd  3.676e-23    
       rs  9.145e-24    
       id    0.         
       rx  396.6789     
       fn  8.122e-25    
    total  4.672e-23    




 element     0:m3
       rd  1.294e-20    
       rs  3.032e-22    
       id    0.         
       rx    8.7617k    
       fn  5.224e-21    
    total  1.846e-20    




 element     0:m4
       rd  3.398e-23    
       rs  7.964e-25    
       id    0.         
       rx  449.0299     
       fn  1.372e-23    
    total  4.850e-23    




 element     0:mt
       rd    0.         
       rs    0.         
       id    0.         
       rx    0.         
       fn    0.         
    total    0.         




 **** total output noise voltage         = 5.516e-20       sq v/hz
                                         = 234.8652p       v/rt hz
      transfer function value:
        v(1)/vinn                        = 132.4753m      
      equivalent input noise at vinn                          
                                         =   1.7729n       /rt hz



 **** the results of the sqrt of integral (v**2 / freq)
      from fstart upto    1.0000g      hz. using more freq points
      results in more accurate total noise values.

 **** total output noise voltage   =    3.8000m       volts
 **** total equivalent input noise =  373.6941u      



 ******  
 ***myop_2stage

  ******  ac analysis tnom=  25.000 temp=  25.000 *****
   gain=    failed    from= -1.2346E-29     to=  0.0000E+00

          ***** job concluded
1****** HSPICE -- B-2008.09 32-BIT (Aug 26 2008) winnt ******                   
 ******  
 ***myop_2stage

  ******  job statistics summary tnom=  25.000 temp=  25.000 *****

  ******  HSPICE Threads Information  ******
  Command Line Threads Count:                      0
  Available CPU Count:                             4
  Actual Model Evaluation(Load) Threads Count:     1
  Actual Solver Threads Count:                     1


  ******  Circuit Statistics  ******
  # nodes       =      27  # elements   =      17
  # resistors   =       0  # capacitors =       0  # inductors   =       0
  # mutual_inds =       0  # vccs       =       0  # vcvs        =       0
  # cccs        =       0  # ccvs       =       0  # volt_srcs   =      11
  # curr_srcs   =       0  # diodes     =       0  # bjts        =       0
  # jfets       =       0  # mosfets    =       6  # U elements  =       0
  # T elements  =       0  # W elements =       0  # B elements  =       0
  # S elements  =       0  # P elements =       0  # va device   =       0


  ******  Runtime Statistics (seconds)  ******

  analysis           time    # points   tot. iter  conv.iter
  op point           0.09           1          85
  dc sweep           0.03         101         304
  ac analysis        0.60        8001        8001
  readin             0.14
  errchk             0.10
  setup              0.02
  output             0.00


           total memory used          339  kbytes
           total cpu time            1.05 seconds
           total elapsed time           1 seconds
           job started at     21:26:51 12/29/2015
           job ended   at     21:26:52 12/29/2015


 Init: hspice initialization file: C:\synopsys\Hspice_B-2008.09\hspice.ini
