$DATA1 SOURCE='HSPICE' VERSION='B-2008.09 32-BIT'
.TITLE '***myop_2stage'
 gain             gain1st          zerodb           phaseatdb         
 temper           alter#            
  -57.1805         -23.5454           failed           failed         
   25.0000           1.0000         
