$DATA1 SOURCE='HSPICE' VERSION='B-2008.09 32-BIT'
.TITLE '***myop_2stage'
 gain             zerodb           phaseatdb        temper            
 alter#            
   61.2294         8.919e+05       -139.6595          25.0000         
    1.0000         
