$DATA1 SOURCE='HSPICE' VERSION='B-2008.09 32-BIT'
.TITLE '***myop_2stage'
 zerodb           phaseatdb        temper           alter#            
  1.006e+06       -135.3257          25.0000           1.0000         
