$DATA1 SOURCE='HSPICE' VERSION='B-2008.09 32-BIT'
.TITLE '***myop_2stage'
 gain             bandwidth        zerodb           phaseatdb         
 temper           alter#            
   61.2297         2.148e+03        2.531e+06       -108.7686         
   25.0000           1.0000         
