$DATA1 SOURCE='HSPICE' VERSION='B-2008.09 32-BIT'
.TITLE '*myop'
 gaindb           temper           alter#            
    failed          25.0000           1.0000         
