$DATA1 SOURCE='HSPICE' VERSION='B-2008.09 32-BIT'
.TITLE '*voltage controlled oscillator'
 period           poslength        temper           alter#            
  3.255e-08        1.801e-08         25.0000           3.0000         
