$DATA1 SOURCE='HSPICE' VERSION='B-2008.09 32-BIT'
.TITLE '*voltage controlled oscillator'
 vin              period           poslength        temper            
                  alter#            
    0.2000           failed           failed          25.0000         
                     1.0000         
    0.2100           failed           failed          25.0000         
                     1.0000         
    0.2200           failed           failed          25.0000         
                     1.0000         
    0.2300           failed           failed          25.0000         
                     1.0000         
    0.2400           failed           failed          25.0000         
                     1.0000         
    0.2500           failed           failed          25.0000         
                     1.0000         
    0.2600           failed           failed          25.0000         
                     1.0000         
    0.2700           failed           failed          25.0000         
                     1.0000         
    0.2800           failed           failed          25.0000         
                     1.0000         
    0.2900           failed           failed          25.0000         
                     1.0000         
    0.3000           failed           failed          25.0000         
                     1.0000         
    0.3100           failed           failed          25.0000         
                     1.0000         
    0.3200           failed           failed          25.0000         
                     1.0000         
    0.3300           failed           failed          25.0000         
                     1.0000         
    0.3400           failed           failed          25.0000         
                     1.0000         
    0.3500           failed           failed          25.0000         
                     1.0000         
    0.3600           failed           failed          25.0000         
                     1.0000         
    0.3700           failed           failed          25.0000         
                     1.0000         
    0.3800           failed           failed          25.0000         
                     1.0000         
    0.3900           failed           failed          25.0000         
                     1.0000         
    0.4000           failed           failed          25.0000         
                     1.0000         
    0.4100           failed         6.099e-09         25.0000         
                     1.0000         
    0.4200           failed         6.112e-09         25.0000         
                     1.0000         
    0.4300         3.047e-07        6.127e-09         25.0000         
                     1.0000         
    0.4400         2.515e-07        6.142e-09         25.0000         
                     1.0000         
    0.4500         2.090e-07        6.159e-09         25.0000         
                     1.0000         
    0.4600         1.749e-07        6.179e-09         25.0000         
                     1.0000         
    0.4700         1.470e-07        6.192e-09         25.0000         
                     1.0000         
    0.4800         1.248e-07        6.222e-09         25.0000         
                     1.0000         
    0.4900         1.063e-07        6.236e-09         25.0000         
                     1.0000         
    0.5000         9.147e-08        6.270e-09         25.0000         
                     1.0000         
    0.5100         7.908e-08        6.292e-09         25.0000         
                     1.0000         
    0.5200         6.903e-08        6.326e-09         25.0000         
                     1.0000         
    0.5300         6.067e-08        6.357e-09         25.0000         
                     1.0000         
    0.5400         5.370e-08        6.391e-09         25.0000         
                     1.0000         
    0.5500         4.795e-08        6.430e-09         25.0000         
                     1.0000         
    0.5600         4.307e-08        6.463e-09         25.0000         
                     1.0000         
    0.5700         3.898e-08        6.501e-09         25.0000         
                     1.0000         
    0.5800         3.553e-08        6.545e-09         25.0000         
                     1.0000         
    0.5900         3.259e-08        6.584e-09         25.0000         
                     1.0000         
    0.6000         3.012e-08        6.622e-09         25.0000         
                     1.0000         
    0.6100         2.800e-08        6.676e-09         25.0000         
                     1.0000         
    0.6200         2.614e-08        6.716e-09         25.0000         
                     1.0000         
    0.6300         2.456e-08        6.762e-09         25.0000         
                     1.0000         
    0.6400         2.317e-08        6.807e-09         25.0000         
                     1.0000         
    0.6500         2.196e-08        6.846e-09         25.0000         
                     1.0000         
    0.6600         2.092e-08        6.895e-09         25.0000         
                     1.0000         
    0.6700         1.998e-08        6.943e-09         25.0000         
                     1.0000         
    0.6800         1.916e-08        6.992e-09         25.0000         
                     1.0000         
    0.6900         1.847e-08        7.039e-09         25.0000         
                     1.0000         
    0.7000         1.782e-08        7.079e-09         25.0000         
                     1.0000         
    0.7100         1.726e-08        7.129e-09         25.0000         
                     1.0000         
    0.7200         1.676e-08        7.176e-09         25.0000         
                     1.0000         
    0.7300         1.630e-08        7.220e-09         25.0000         
                     1.0000         
    0.7400         1.588e-08        7.252e-09         25.0000         
                     1.0000         
    0.7500         1.551e-08        7.302e-09         25.0000         
                     1.0000         
    0.7600         1.518e-08        7.342e-09         25.0000         
                     1.0000         
    0.7700         1.486e-08        7.384e-09         25.0000         
                     1.0000         
    0.7800         1.464e-08        7.438e-09         25.0000         
                     1.0000         
    0.7900         1.436e-08        7.447e-09         25.0000         
                     1.0000         
    0.8000         1.417e-08        7.514e-09         25.0000         
                     1.0000         
